data/feeders/R4-12.47-1.glm
clock {
     timezone EST+5EDT;
     timestamp '2000-01-01 0:00:00';
     stoptime '2000-01-01 0:01:00';
}
#set profiler=1
module tape;
module powerflow{
  solver_method NR;
  default_maximum_voltage_error 1e-6;
};
object transformer_configuration {
  name XF1_POLETOP_CS_25;
  power_rating 25.00;
  powerA_rating 0.0;
  powerB_rating 0.0;
  powerC_rating 25.00;
  install_type POLETOP;
  connect_type SINGLE_PHASE_CENTER_TAPPED;
  primary_voltage 7970.0;
  secondary_voltage 120.0;
  resistance 0.00800;
  resistance1 0.01600;
  resistance2 0.01600;
  reactance 0.01208;
  reactance1 0.00604;
  reactance2 0.00604;
  shunt_resistance 192.31;
  shunt_reactance 51.81;
}
object transformer_configuration {
  name XF1_POLETOP_AS_25;
  power_rating 25.00;
  powerA_rating 25.00;
  powerB_rating 0.0;
  powerC_rating 0.0;
  install_type POLETOP;
  connect_type SINGLE_PHASE_CENTER_TAPPED;
  primary_voltage 7970.0;
  secondary_voltage 120.0;
  resistance 0.00800;
  resistance1 0.01600;
  resistance2 0.01600;
  reactance 0.01208;
  reactance1 0.00604;
  reactance2 0.00604;
  shunt_resistance 192.31;
  shunt_reactance 51.81;
}
object transformer_configuration {
  name XF1_POLETOP_BS_5;
  power_rating 5.00;
  powerA_rating 0.0;
  powerB_rating 5.00;
  powerC_rating 0.0;
  install_type POLETOP;
  connect_type SINGLE_PHASE_CENTER_TAPPED;
  primary_voltage 7970.0;
  secondary_voltage 120.0;
  resistance 0.01050;
  resistance1 0.02100;
  resistance2 0.02100;
  reactance 0.01224;
  reactance1 0.00612;
  reactance2 0.00612;
  shunt_resistance 111.11;
  shunt_reactance 29.59;
}
object transformer_configuration {
  name XF1_POLETOP_CS_5;
  power_rating 5.00;
  powerA_rating 0.0;
  powerB_rating 0.0;
  powerC_rating 5.00;
  install_type POLETOP;
  connect_type SINGLE_PHASE_CENTER_TAPPED;
  primary_voltage 7970.0;
  secondary_voltage 120.0;
  resistance 0.01050;
  resistance1 0.02100;
  resistance2 0.02100;
  reactance 0.01224;
  reactance1 0.00612;
  reactance2 0.00612;
  shunt_resistance 111.11;
  shunt_reactance 29.59;
}
object transformer_configuration {
  name XF1_POLETOP_CS_10;
  power_rating 10.00;
  powerA_rating 0.0;
  powerB_rating 0.0;
  powerC_rating 10.00;
  install_type POLETOP;
  connect_type SINGLE_PHASE_CENTER_TAPPED;
  primary_voltage 7970.0;
  secondary_voltage 120.0;
  resistance 0.00950;
  resistance1 0.01900;
  resistance2 0.01900;
  reactance 0.01040;
  reactance1 0.00520;
  reactance2 0.00520;
  shunt_resistance 147.06;
  shunt_reactance 34.25;
}
object transformer_configuration {
  name XF1_POLETOP_BS_15;
  power_rating 15.00;
  powerA_rating 0.0;
  powerB_rating 15.00;
  powerC_rating 0.0;
  install_type POLETOP;
  connect_type SINGLE_PHASE_CENTER_TAPPED;
  primary_voltage 7970.0;
  secondary_voltage 120.0;
  resistance 0.00850;
  resistance1 0.01700;
  resistance2 0.01700;
  reactance 0.01176;
  reactance1 0.00588;
  reactance2 0.00588;
  shunt_resistance 166.67;
  shunt_reactance 39.53;
}
object transformer_configuration {
  name XF1_POLETOP_AS_10;
  power_rating 10.00;
  powerA_rating 10.00;
  powerB_rating 0.0;
  powerC_rating 0.0;
  install_type POLETOP;
  connect_type SINGLE_PHASE_CENTER_TAPPED;
  primary_voltage 7970.0;
  secondary_voltage 120.0;
  resistance 0.00950;
  resistance1 0.01900;
  resistance2 0.01900;
  reactance 0.01040;
  reactance1 0.00520;
  reactance2 0.00520;
  shunt_resistance 147.06;
  shunt_reactance 34.25;
}
object transformer_configuration {
  name XF1_POLETOP_AS_37p5;
  power_rating 37.50;
  powerA_rating 37.50;
  powerB_rating 0.0;
  powerC_rating 0.0;
  install_type POLETOP;
  connect_type SINGLE_PHASE_CENTER_TAPPED;
  primary_voltage 7970.0;
  secondary_voltage 120.0;
  resistance 0.00725;
  resistance1 0.01450;
  resistance2 0.01450;
  reactance 0.01320;
  reactance1 0.00660;
  reactance2 0.00660;
  shunt_resistance 212.77;
  shunt_reactance 57.47;
}
object transformer_configuration {
  name XF1_POLETOP_AS_5;
  power_rating 5.00;
  powerA_rating 5.00;
  powerB_rating 0.0;
  powerC_rating 0.0;
  install_type POLETOP;
  connect_type SINGLE_PHASE_CENTER_TAPPED;
  primary_voltage 7970.0;
  secondary_voltage 120.0;
  resistance 0.01050;
  resistance1 0.02100;
  resistance2 0.02100;
  reactance 0.01224;
  reactance1 0.00612;
  reactance2 0.00612;
  shunt_resistance 111.11;
  shunt_reactance 29.59;
}
object transformer_configuration {
  name XF1_POLETOP_CS_75;
  power_rating 75.00;
  powerA_rating 0.0;
  powerB_rating 0.0;
  powerC_rating 75.00;
  install_type POLETOP;
  connect_type SINGLE_PHASE_CENTER_TAPPED;
  primary_voltage 7970.0;
  secondary_voltage 120.0;
  resistance 0.00625;
  resistance1 0.01250;
  resistance2 0.01250;
  reactance 0.01352;
  reactance1 0.00676;
  reactance2 0.00676;
  shunt_resistance 238.10;
  shunt_reactance 67.11;
}
object transformer_configuration {
  name XF1_POLETOP_AS_75;
  power_rating 75.00;
  powerA_rating 75.00;
  powerB_rating 0.0;
  powerC_rating 0.0;
  install_type POLETOP;
  connect_type SINGLE_PHASE_CENTER_TAPPED;
  primary_voltage 7970.0;
  secondary_voltage 120.0;
  resistance 0.00625;
  resistance1 0.01250;
  resistance2 0.01250;
  reactance 0.01352;
  reactance1 0.00676;
  reactance2 0.00676;
  shunt_resistance 238.10;
  shunt_reactance 67.11;
}
object transformer_configuration {
  name XF1_POLETOP_BS_37p5;
  power_rating 37.50;
  powerA_rating 0.0;
  powerB_rating 37.50;
  powerC_rating 0.0;
  install_type POLETOP;
  connect_type SINGLE_PHASE_CENTER_TAPPED;
  primary_voltage 7970.0;
  secondary_voltage 120.0;
  resistance 0.00725;
  resistance1 0.01450;
  resistance2 0.01450;
  reactance 0.01320;
  reactance1 0.00660;
  reactance2 0.00660;
  shunt_resistance 212.77;
  shunt_reactance 57.47;
}
object transformer_configuration {
  name XF1_POLETOP_CS_37p5;
  power_rating 37.50;
  powerA_rating 0.0;
  powerB_rating 0.0;
  powerC_rating 37.50;
  install_type POLETOP;
  connect_type SINGLE_PHASE_CENTER_TAPPED;
  primary_voltage 7970.0;
  secondary_voltage 120.0;
  resistance 0.00725;
  resistance1 0.01450;
  resistance2 0.01450;
  reactance 0.01320;
  reactance1 0.00660;
  reactance2 0.00660;
  shunt_resistance 212.77;
  shunt_reactance 57.47;
}
object transformer_configuration {
  name XF1_POLETOP_BS_75;
  power_rating 75.00;
  powerA_rating 0.0;
  powerB_rating 75.00;
  powerC_rating 0.0;
  install_type POLETOP;
  connect_type SINGLE_PHASE_CENTER_TAPPED;
  primary_voltage 7970.0;
  secondary_voltage 120.0;
  resistance 0.00625;
  resistance1 0.01250;
  resistance2 0.01250;
  reactance 0.01352;
  reactance1 0.00676;
  reactance2 0.00676;
  shunt_resistance 238.10;
  shunt_reactance 67.11;
}
object transformer_configuration {
  name XF1_POLETOP_AS_50;
  power_rating 50.00;
  powerA_rating 50.00;
  powerB_rating 0.0;
  powerC_rating 0.0;
  install_type POLETOP;
  connect_type SINGLE_PHASE_CENTER_TAPPED;
  primary_voltage 7970.0;
  secondary_voltage 120.0;
  resistance 0.00650;
  resistance1 0.01300;
  resistance2 0.01300;
  reactance 0.01416;
  reactance1 0.00708;
  reactance2 0.00708;
  shunt_resistance 222.22;
  shunt_reactance 64.94;
}
object transformer_configuration {
  name XF1_PADMOUNT_BS_15;
  power_rating 15.00;
  powerA_rating 0.0;
  powerB_rating 15.00;
  powerC_rating 0.0;
  install_type PADMOUNT;
  connect_type SINGLE_PHASE_CENTER_TAPPED;
  primary_voltage 7970.0;
  secondary_voltage 120.0;
  resistance 0.00850;
  resistance1 0.01700;
  resistance2 0.01700;
  reactance 0.01176;
  reactance1 0.00588;
  reactance2 0.00588;
  shunt_resistance 166.67;
  shunt_reactance 39.53;
}
object transformer_configuration {
  name XF1_POLETOP_BS_10;
  power_rating 10.00;
  powerA_rating 0.0;
  powerB_rating 10.00;
  powerC_rating 0.0;
  install_type POLETOP;
  connect_type SINGLE_PHASE_CENTER_TAPPED;
  primary_voltage 7970.0;
  secondary_voltage 120.0;
  resistance 0.00950;
  resistance1 0.01900;
  resistance2 0.01900;
  reactance 0.01040;
  reactance1 0.00520;
  reactance2 0.00520;
  shunt_resistance 147.06;
  shunt_reactance 34.25;
}
object transformer_configuration {
  name XF1_PADMOUNT_BS_37p5;
  power_rating 37.50;
  powerA_rating 0.0;
  powerB_rating 37.50;
  powerC_rating 0.0;
  install_type PADMOUNT;
  connect_type SINGLE_PHASE_CENTER_TAPPED;
  primary_voltage 7970.0;
  secondary_voltage 120.0;
  resistance 0.00725;
  resistance1 0.01450;
  resistance2 0.01450;
  reactance 0.01320;
  reactance1 0.00660;
  reactance2 0.00660;
  shunt_resistance 212.77;
  shunt_reactance 57.47;
}
object transformer_configuration {
  name XF1_PADMOUNT_CS_10;
  power_rating 10.00;
  powerA_rating 0.0;
  powerB_rating 0.0;
  powerC_rating 10.00;
  install_type PADMOUNT;
  connect_type SINGLE_PHASE_CENTER_TAPPED;
  primary_voltage 7970.0;
  secondary_voltage 120.0;
  resistance 0.00950;
  resistance1 0.01900;
  resistance2 0.01900;
  reactance 0.01040;
  reactance1 0.00520;
  reactance2 0.00520;
  shunt_resistance 147.06;
  shunt_reactance 34.25;
}
object transformer_configuration {
  name XF1_PADMOUNT_AS_10;
  power_rating 10.00;
  powerA_rating 10.00;
  powerB_rating 0.0;
  powerC_rating 0.0;
  install_type PADMOUNT;
  connect_type SINGLE_PHASE_CENTER_TAPPED;
  primary_voltage 7970.0;
  secondary_voltage 120.0;
  resistance 0.00950;
  resistance1 0.01900;
  resistance2 0.01900;
  reactance 0.01040;
  reactance1 0.00520;
  reactance2 0.00520;
  shunt_resistance 147.06;
  shunt_reactance 34.25;
}
object transformer_configuration {
  name XF1_PADMOUNT_BS_10;
  power_rating 10.00;
  powerA_rating 0.0;
  powerB_rating 10.00;
  powerC_rating 0.0;
  install_type PADMOUNT;
  connect_type SINGLE_PHASE_CENTER_TAPPED;
  primary_voltage 7970.0;
  secondary_voltage 120.0;
  resistance 0.00950;
  resistance1 0.01900;
  resistance2 0.01900;
  reactance 0.01040;
  reactance1 0.00520;
  reactance2 0.00520;
  shunt_resistance 147.06;
  shunt_reactance 34.25;
}
object transformer_configuration {
  name XF1_PADMOUNT_AS_25;
  power_rating 25.00;
  powerA_rating 25.00;
  powerB_rating 0.0;
  powerC_rating 0.0;
  install_type PADMOUNT;
  connect_type SINGLE_PHASE_CENTER_TAPPED;
  primary_voltage 7970.0;
  secondary_voltage 120.0;
  resistance 0.00800;
  resistance1 0.01600;
  resistance2 0.01600;
  reactance 0.01208;
  reactance1 0.00604;
  reactance2 0.00604;
  shunt_resistance 192.31;
  shunt_reactance 51.81;
}
object transformer_configuration {
  name XF1_PADMOUNT_CS_5;
  power_rating 5.00;
  powerA_rating 0.0;
  powerB_rating 0.0;
  powerC_rating 5.00;
  install_type PADMOUNT;
  connect_type SINGLE_PHASE_CENTER_TAPPED;
  primary_voltage 7970.0;
  secondary_voltage 120.0;
  resistance 0.01050;
  resistance1 0.02100;
  resistance2 0.02100;
  reactance 0.01224;
  reactance1 0.00612;
  reactance2 0.00612;
  shunt_resistance 111.11;
  shunt_reactance 29.59;
}
object transformer_configuration {
  name XF1_PADMOUNT_BS_75;
  power_rating 75.00;
  powerA_rating 0.0;
  powerB_rating 75.00;
  powerC_rating 0.0;
  install_type PADMOUNT;
  connect_type SINGLE_PHASE_CENTER_TAPPED;
  primary_voltage 7970.0;
  secondary_voltage 120.0;
  resistance 0.00625;
  resistance1 0.01250;
  resistance2 0.01250;
  reactance 0.01352;
  reactance1 0.00676;
  reactance2 0.00676;
  shunt_resistance 238.10;
  shunt_reactance 67.11;
}
object transformer_configuration {
  name XF1_PADMOUNT_CS_37p5;
  power_rating 37.50;
  powerA_rating 0.0;
  powerB_rating 0.0;
  powerC_rating 37.50;
  install_type PADMOUNT;
  connect_type SINGLE_PHASE_CENTER_TAPPED;
  primary_voltage 7970.0;
  secondary_voltage 120.0;
  resistance 0.00725;
  resistance1 0.01450;
  resistance2 0.01450;
  reactance 0.01320;
  reactance1 0.00660;
  reactance2 0.00660;
  shunt_resistance 212.77;
  shunt_reactance 57.47;
}
object transformer_configuration {
  name XF1_PADMOUNT_CS_50;
  power_rating 50.00;
  powerA_rating 0.0;
  powerB_rating 0.0;
  powerC_rating 50.00;
  install_type PADMOUNT;
  connect_type SINGLE_PHASE_CENTER_TAPPED;
  primary_voltage 7970.0;
  secondary_voltage 120.0;
  resistance 0.00650;
  resistance1 0.01300;
  resistance2 0.01300;
  reactance 0.01416;
  reactance1 0.00708;
  reactance2 0.00708;
  shunt_resistance 222.22;
  shunt_reactance 64.94;
}
object transformer_configuration {
  name XF1_POLETOP_AS_15;
  power_rating 15.00;
  powerA_rating 15.00;
  powerB_rating 0.0;
  powerC_rating 0.0;
  install_type POLETOP;
  connect_type SINGLE_PHASE_CENTER_TAPPED;
  primary_voltage 7970.0;
  secondary_voltage 120.0;
  resistance 0.00850;
  resistance1 0.01700;
  resistance2 0.01700;
  reactance 0.01176;
  reactance1 0.00588;
  reactance2 0.00588;
  shunt_resistance 166.67;
  shunt_reactance 39.53;
}
object transformer_configuration {
  name XF1_POLETOP_CS_50;
  power_rating 50.00;
  powerA_rating 0.0;
  powerB_rating 0.0;
  powerC_rating 50.00;
  install_type POLETOP;
  connect_type SINGLE_PHASE_CENTER_TAPPED;
  primary_voltage 7970.0;
  secondary_voltage 120.0;
  resistance 0.00650;
  resistance1 0.01300;
  resistance2 0.01300;
  reactance 0.01416;
  reactance1 0.00708;
  reactance2 0.00708;
  shunt_resistance 222.22;
  shunt_reactance 64.94;
}
object transformer_configuration {
  name XF1_PADMOUNT_AS_5;
  power_rating 5.00;
  powerA_rating 5.00;
  powerB_rating 0.0;
  powerC_rating 0.0;
  install_type PADMOUNT;
  connect_type SINGLE_PHASE_CENTER_TAPPED;
  primary_voltage 7970.0;
  secondary_voltage 120.0;
  resistance 0.01050;
  resistance1 0.02100;
  resistance2 0.02100;
  reactance 0.01224;
  reactance1 0.00612;
  reactance2 0.00612;
  shunt_resistance 111.11;
  shunt_reactance 29.59;
}
object transformer_configuration {
  name XF1_PADMOUNT_CS_25;
  power_rating 25.00;
  powerA_rating 0.0;
  powerB_rating 0.0;
  powerC_rating 25.00;
  install_type PADMOUNT;
  connect_type SINGLE_PHASE_CENTER_TAPPED;
  primary_voltage 7970.0;
  secondary_voltage 120.0;
  resistance 0.00800;
  resistance1 0.01600;
  resistance2 0.01600;
  reactance 0.01208;
  reactance1 0.00604;
  reactance2 0.00604;
  shunt_resistance 192.31;
  shunt_reactance 51.81;
}
object transformer_configuration {
  name XF1_PADMOUNT_AS_37p5;
  power_rating 37.50;
  powerA_rating 37.50;
  powerB_rating 0.0;
  powerC_rating 0.0;
  install_type PADMOUNT;
  connect_type SINGLE_PHASE_CENTER_TAPPED;
  primary_voltage 7970.0;
  secondary_voltage 120.0;
  resistance 0.00725;
  resistance1 0.01450;
  resistance2 0.01450;
  reactance 0.01320;
  reactance1 0.00660;
  reactance2 0.00660;
  shunt_resistance 212.77;
  shunt_reactance 57.47;
}
object transformer_configuration {
  name XF1_POLETOP_BS_25;
  power_rating 25.00;
  powerA_rating 0.0;
  powerB_rating 25.00;
  powerC_rating 0.0;
  install_type POLETOP;
  connect_type SINGLE_PHASE_CENTER_TAPPED;
  primary_voltage 7970.0;
  secondary_voltage 120.0;
  resistance 0.00800;
  resistance1 0.01600;
  resistance2 0.01600;
  reactance 0.01208;
  reactance1 0.00604;
  reactance2 0.00604;
  shunt_resistance 192.31;
  shunt_reactance 51.81;
}
object transformer_configuration {
  name XF1_POLETOP_CS_15;
  power_rating 15.00;
  powerA_rating 0.0;
  powerB_rating 0.0;
  powerC_rating 15.00;
  install_type POLETOP;
  connect_type SINGLE_PHASE_CENTER_TAPPED;
  primary_voltage 7970.0;
  secondary_voltage 120.0;
  resistance 0.00850;
  resistance1 0.01700;
  resistance2 0.01700;
  reactance 0.01176;
  reactance1 0.00588;
  reactance2 0.00588;
  shunt_resistance 166.67;
  shunt_reactance 39.53;
}
object transformer_configuration {
  name XF1_POLETOP_BS_50;
  power_rating 50.00;
  powerA_rating 0.0;
  powerB_rating 50.00;
  powerC_rating 0.0;
  install_type POLETOP;
  connect_type SINGLE_PHASE_CENTER_TAPPED;
  primary_voltage 7970.0;
  secondary_voltage 120.0;
  resistance 0.00650;
  resistance1 0.01300;
  resistance2 0.01300;
  reactance 0.01416;
  reactance1 0.00708;
  reactance2 0.00708;
  shunt_resistance 222.22;
  shunt_reactance 64.94;
}
object transformer_configuration {
  name XF1_POLETOP_CN_5;
  power_rating 5.00;
  powerA_rating 0.0;
  powerB_rating 0.0;
  powerC_rating 5.00;
  install_type POLETOP;
  connect_type WYE_WYE;
  primary_voltage 13800.0;
  secondary_voltage 208.0;
  resistance 0.01900;
  reactance 0.01770;
  shunt_resistance 126.58;
  shunt_reactance 22.57;
}
object transformer_configuration {
  name XF3_POLETOP_ABCN_45;
  power_rating 45.00;
  powerA_rating 15.00;
  powerB_rating 15.00;
  powerC_rating 15.00;
  install_type POLETOP;
  connect_type WYE_WYE;
  primary_voltage 13800.0;
  secondary_voltage 208.0;
  resistance 0.01750;
  reactance 0.02120;
  shunt_resistance 142.86;
  shunt_reactance 25.38;
}
object transformer_configuration {
  name XF3_POLETOP_ABCN_30;
  power_rating 30.00;
  powerA_rating 10.00;
  powerB_rating 10.00;
  powerC_rating 10.00;
  install_type POLETOP;
  connect_type WYE_WYE;
  primary_voltage 13800.0;
  secondary_voltage 208.0;
  resistance 0.01900;
  reactance 0.01770;
  shunt_resistance 126.58;
  shunt_reactance 22.57;
}
object transformer_configuration {
  name XF3_POLETOP_ABCN_300;
  power_rating 300.00;
  powerA_rating 100.00;
  powerB_rating 100.00;
  powerC_rating 100.00;
  install_type POLETOP;
  connect_type WYE_WYE;
  primary_voltage 13800.0;
  secondary_voltage 480.0;
  resistance 0.01300;
  reactance 0.04830;
  shunt_resistance 217.39;
  shunt_reactance 44.44;
}
object transformer_configuration {
  name XF2_POLETOP_ABN_30;
  power_rating 30.00;
  powerA_rating 15.00;
  powerB_rating 15.00;
  powerC_rating 0.0;
  install_type POLETOP;
  connect_type WYE_WYE;
  primary_voltage 13800.0;
  secondary_voltage 208.0;
  resistance 0.01900;
  reactance 0.01770;
  shunt_resistance 126.58;
  shunt_reactance 22.57;
}
object transformer_configuration {
  name XF3_POLETOP_ABCN_112p5;
  power_rating 112.50;
  powerA_rating 37.50;
  powerB_rating 37.50;
  powerC_rating 37.50;
  install_type POLETOP;
  connect_type WYE_WYE;
  primary_voltage 13800.0;
  secondary_voltage 480.0;
  resistance 0.01450;
  reactance 0.02850;
  shunt_resistance 169.49;
  shunt_reactance 33.44;
}
object transformer_configuration {
  name XF2_POLETOP_ACN_30;
  power_rating 30.00;
  powerA_rating 15.00;
  powerB_rating 0.0;
  powerC_rating 15.00;
  install_type POLETOP;
  connect_type WYE_WYE;
  primary_voltage 13800.0;
  secondary_voltage 208.0;
  resistance 0.01900;
  reactance 0.01770;
  shunt_resistance 126.58;
  shunt_reactance 22.57;
}
object transformer_configuration {
  name XF3_PADMOUNT_ABCN_30;
  power_rating 30.00;
  powerA_rating 10.00;
  powerB_rating 10.00;
  powerC_rating 10.00;
  install_type PADMOUNT;
  connect_type WYE_WYE;
  primary_voltage 13800.0;
  secondary_voltage 208.0;
  resistance 0.01900;
  reactance 0.01770;
  shunt_resistance 126.58;
  shunt_reactance 22.57;
}
object transformer_configuration {
  name XF2_PADMOUNT_ACN_75;
  power_rating 75.00;
  powerA_rating 37.50;
  powerB_rating 0.0;
  powerC_rating 37.50;
  install_type PADMOUNT;
  connect_type WYE_WYE;
  primary_voltage 13800.0;
  secondary_voltage 208.0;
  resistance 0.01600;
  reactance 0.02420;
  shunt_resistance 158.73;
  shunt_reactance 30.86;
}
object transformer_configuration {
  name XF1_PADMOUNT_CN_25;
  power_rating 25.00;
  powerA_rating 0.0;
  powerB_rating 0.0;
  powerC_rating 25.00;
  install_type PADMOUNT;
  connect_type WYE_WYE;
  primary_voltage 13800.0;
  secondary_voltage 208.0;
  resistance 0.01900;
  reactance 0.01770;
  shunt_resistance 126.58;
  shunt_reactance 22.57;
}
object transformer_configuration {
  name XF1_POLETOP_BN_5;
  power_rating 5.00;
  powerA_rating 0.0;
  powerB_rating 5.00;
  powerC_rating 0.0;
  install_type POLETOP;
  connect_type WYE_WYE;
  primary_voltage 13800.0;
  secondary_voltage 208.0;
  resistance 0.01900;
  reactance 0.01770;
  shunt_resistance 126.58;
  shunt_reactance 22.57;
}
object transformer_configuration {
  name XF1_POLETOP_AN_15;
  power_rating 15.00;
  powerA_rating 15.00;
  powerB_rating 0.0;
  powerC_rating 0.0;
  install_type POLETOP;
  connect_type WYE_WYE;
  primary_voltage 13800.0;
  secondary_voltage 208.0;
  resistance 0.01900;
  reactance 0.01770;
  shunt_resistance 126.58;
  shunt_reactance 22.57;
}
object transformer_configuration {
  name XF3_POLETOP_ABCN_75;
  power_rating 75.00;
  powerA_rating 25.00;
  powerB_rating 25.00;
  powerC_rating 25.00;
  install_type POLETOP;
  connect_type WYE_WYE;
  primary_voltage 13800.0;
  secondary_voltage 208.0;
  resistance 0.01600;
  reactance 0.02420;
  shunt_resistance 158.73;
  shunt_reactance 30.86;
}
object transformer_configuration {
  name XF2_POLETOP_BCN_112p5;
  power_rating 112.50;
  powerA_rating 0.0;
  powerB_rating 56.25;
  powerC_rating 56.25;
  install_type POLETOP;
  connect_type WYE_WYE;
  primary_voltage 13800.0;
  secondary_voltage 480.0;
  resistance 0.01450;
  reactance 0.02850;
  shunt_resistance 169.49;
  shunt_reactance 33.44;
}
object transformer_configuration {
  name XF2_POLETOP_BCN_30;
  power_rating 30.00;
  powerA_rating 0.0;
  powerB_rating 15.00;
  powerC_rating 15.00;
  install_type POLETOP;
  connect_type WYE_WYE;
  primary_voltage 13800.0;
  secondary_voltage 208.0;
  resistance 0.01900;
  reactance 0.01770;
  shunt_resistance 126.58;
  shunt_reactance 22.57;
}
object transformer_configuration {
  name XF1_POLETOP_CN_15;
  power_rating 15.00;
  powerA_rating 0.0;
  powerB_rating 0.0;
  powerC_rating 15.00;
  install_type POLETOP;
  connect_type WYE_WYE;
  primary_voltage 13800.0;
  secondary_voltage 208.0;
  resistance 0.01900;
  reactance 0.01770;
  shunt_resistance 126.58;
  shunt_reactance 22.57;
}
object transformer_configuration {
  name XF1_POLETOP_CN_10;
  power_rating 10.00;
  powerA_rating 0.0;
  powerB_rating 0.0;
  powerC_rating 10.00;
  install_type POLETOP;
  connect_type WYE_WYE;
  primary_voltage 13800.0;
  secondary_voltage 208.0;
  resistance 0.01900;
  reactance 0.01770;
  shunt_resistance 126.58;
  shunt_reactance 22.57;
}
object transformer_configuration {
  name XF2_POLETOP_BCN_45;
  power_rating 45.00;
  powerA_rating 0.0;
  powerB_rating 22.50;
  powerC_rating 22.50;
  install_type POLETOP;
  connect_type WYE_WYE;
  primary_voltage 13800.0;
  secondary_voltage 208.0;
  resistance 0.01750;
  reactance 0.02120;
  shunt_resistance 142.86;
  shunt_reactance 25.38;
}
object transformer_configuration {
  name XF1_POLETOP_BN_10;
  power_rating 10.00;
  powerA_rating 0.0;
  powerB_rating 10.00;
  powerC_rating 0.0;
  install_type POLETOP;
  connect_type WYE_WYE;
  primary_voltage 13800.0;
  secondary_voltage 208.0;
  resistance 0.01900;
  reactance 0.01770;
  shunt_resistance 126.58;
  shunt_reactance 22.57;
}
object transformer_configuration {
  name XF2_POLETOP_ACN_45;
  power_rating 45.00;
  powerA_rating 22.50;
  powerB_rating 0.0;
  powerC_rating 22.50;
  install_type POLETOP;
  connect_type WYE_WYE;
  primary_voltage 13800.0;
  secondary_voltage 208.0;
  resistance 0.01750;
  reactance 0.02120;
  shunt_resistance 142.86;
  shunt_reactance 25.38;
}
object transformer_configuration {
  name XF1_POLETOP_AN_10;
  power_rating 10.00;
  powerA_rating 10.00;
  powerB_rating 0.0;
  powerC_rating 0.0;
  install_type POLETOP;
  connect_type WYE_WYE;
  primary_voltage 13800.0;
  secondary_voltage 208.0;
  resistance 0.01900;
  reactance 0.01770;
  shunt_resistance 126.58;
  shunt_reactance 22.57;
}
object transformer_configuration {
  name XF1_POLETOP_AN_25;
  power_rating 25.00;
  powerA_rating 25.00;
  powerB_rating 0.0;
  powerC_rating 0.0;
  install_type POLETOP;
  connect_type WYE_WYE;
  primary_voltage 13800.0;
  secondary_voltage 208.0;
  resistance 0.01900;
  reactance 0.01770;
  shunt_resistance 126.58;
  shunt_reactance 22.57;
}
object transformer_configuration {
  name XF1_POLETOP_BN_15;
  power_rating 15.00;
  powerA_rating 0.0;
  powerB_rating 15.00;
  powerC_rating 0.0;
  install_type POLETOP;
  connect_type WYE_WYE;
  primary_voltage 13800.0;
  secondary_voltage 208.0;
  resistance 0.01900;
  reactance 0.01770;
  shunt_resistance 126.58;
  shunt_reactance 22.57;
}
object transformer_configuration {
  name XF1_POLETOP_AN_5;
  power_rating 5.00;
  powerA_rating 5.00;
  powerB_rating 0.0;
  powerC_rating 0.0;
  install_type POLETOP;
  connect_type WYE_WYE;
  primary_voltage 13800.0;
  secondary_voltage 208.0;
  resistance 0.01900;
  reactance 0.01770;
  shunt_resistance 126.58;
  shunt_reactance 22.57;
}
object transformer_configuration {
  name XF1_POLETOP_BN_37p5;
  power_rating 37.50;
  powerA_rating 0.0;
  powerB_rating 37.50;
  powerC_rating 0.0;
  install_type POLETOP;
  connect_type WYE_WYE;
  primary_voltage 13800.0;
  secondary_voltage 208.0;
  resistance 0.01750;
  reactance 0.02120;
  shunt_resistance 142.86;
  shunt_reactance 25.38;
}
object transformer_configuration {
  name XF1_PADMOUNT_CN_5;
  power_rating 5.00;
  powerA_rating 0.0;
  powerB_rating 0.0;
  powerC_rating 5.00;
  install_type PADMOUNT;
  connect_type WYE_WYE;
  primary_voltage 13800.0;
  secondary_voltage 208.0;
  resistance 0.01900;
  reactance 0.01770;
  shunt_resistance 126.58;
  shunt_reactance 22.57;
}
object regulator_configuration {
  name feeder_reg_cfg;
  Control OUTPUT_VOLTAGE;
  band_center 8300.0;
  band_width 133;
  connect_type WYE_WYE;
  time_delay 30;
  raise_taps 16;
  lower_taps 16;
  regulation 0.10;
  tap_pos_A 0;
  tap_pos_B 0;
  tap_pos_C 0;
}
object overhead_line_conductor {
  name ID_1289;
  rating.summer.continuous 149.0;
  geometric_mean_radius 0.00663 ft;
  resistance 1.50000;
}
object overhead_line_conductor {
  name ID_1290;
  rating.summer.continuous 256.0;
  geometric_mean_radius 0.01200 ft;
  resistance 0.16600;
}
object overhead_line_conductor {
  name ID_1291;
  rating.summer.continuous 334.0;
  geometric_mean_radius 0.00814 ft;
  resistance 0.56300;
}
object overhead_line_conductor {
  name ID_1292;
  rating.summer.continuous 360.0;
  geometric_mean_radius 0.01033 ft;
  resistance 0.47600;
}
object overhead_line_conductor {
  name ID_1293;
  rating.summer.continuous 531.0;
  geometric_mean_radius 0.02240 ft;
  resistance 0.30600;
}
object line_spacing {
  name ID_117;
  distance_BN 69.99999999996 in;
}
object line_spacing {
  name ID_118;
  distance_CN 69.99999999996 in;
}
object line_spacing {
  name ID_119;
  distance_AB 53.19999999996 in;
  distance_BC 53.19999999996 in;
  distance_AC 53.19999999996 in;
  distance_AN 80.49999999996 in;
  distance_BN 80.49999999996 in;
  distance_CN 80.49999999996 in;
}
object line_spacing {
  name ID_120;
  distance_AN 69.99999999996 in;
}
object line_spacing {
  name ID_121;
  distance_AC 87.99999999996 in;
  distance_AN 19.2 in;
  distance_CN 19.2 in;
}
object line_spacing {
  name ID_122;
  distance_AB 87.99999999996 in;
  distance_AN 19.2 in;
  distance_BN 19.2 in;
}
object line_spacing {
  name ID_123;
  distance_AN 360.0 in;
}
object line_spacing {
  name ID_124;
  distance_BC 87.99999999996 in;
  distance_BN 19.2 in;
  distance_CN 19.2 in;
}
object line_spacing {
  name ID_125;
  distance_CN 360.0 in;
}
object line_spacing {
  name ID_126;
  distance_BN 360.0 in;
}
object line_spacing {
  name ID_127;
  distance_BC 48.0 in;
  distance_BN 20.79999999996 in;
  distance_CN 20.79999999996 in;
}
object line_spacing {
  name ID_128;
  distance_AB 12.0 in;
  distance_BC 12.0 in;
  distance_AC 12.0 in;
  distance_AN 360.0 in;
  distance_BN 360.0 in;
  distance_CN 360.0 in;
}
object line_spacing {
  name ID_129;
  distance_AB 60.50000000004 in;
  distance_BC 60.50000000004 in;
  distance_AC 60.50000000004 in;
  distance_AN 114.99999999996 in;
  distance_BN 114.99999999996 in;
  distance_CN 114.99999999996 in;
}
object line_configuration {
  name ID_88;
  conductor_B ID_1289;
  conductor_N ID_1289;
  spacing ID_117;
}
object line_configuration {
  name ID_89;
  conductor_C ID_1289;
  conductor_N ID_1289;
  spacing ID_118;
}
object line_configuration {
  name ID_90;
  conductor_A ID_1290;
  conductor_B ID_1290;
  conductor_C ID_1290;
  conductor_N ID_1290;
  spacing ID_119;
}
object line_configuration {
  name ID_91;
  conductor_A ID_1290;
  conductor_B ID_1290;
  conductor_C ID_1290;
  conductor_N ID_1290;
  spacing ID_119;
}
object line_configuration {
  name ID_92;
  conductor_A ID_1291;
  conductor_B ID_1291;
  conductor_C ID_1291;
  conductor_N ID_1291;
  spacing ID_119;
}
object line_configuration {
  name ID_93;
  conductor_A ID_1292;
  conductor_B ID_1292;
  conductor_C ID_1292;
  conductor_N ID_1292;
  spacing ID_119;
}
object line_configuration {
  name ID_94;
  conductor_A ID_1292;
  conductor_B ID_1292;
  conductor_C ID_1292;
  conductor_N ID_1292;
  spacing ID_119;
}
object line_configuration {
  name ID_95;
  conductor_A ID_1289;
  conductor_N ID_1289;
  spacing ID_120;
}
object line_configuration {
  name ID_96;
  conductor_A ID_1290;
  conductor_C ID_1290;
  conductor_N ID_1290;
  spacing ID_121;
}
object line_configuration {
  name ID_97;
  conductor_A ID_1293;
  conductor_B ID_1293;
  conductor_C ID_1293;
  conductor_N ID_1293;
  spacing ID_119;
}
object line_configuration {
  name ID_98;
  conductor_A ID_1289;
  conductor_B ID_1289;
  conductor_N ID_1289;
  spacing ID_122;
}
object line_configuration {
  name ID_99;
  conductor_A ID_1289;
  conductor_B ID_1289;
  conductor_C ID_1289;
  conductor_N ID_1289;
  spacing ID_119;
}
object line_configuration {
  name ID_100;
  conductor_A ID_1289;
  conductor_C ID_1289;
  conductor_N ID_1289;
  spacing ID_121;
}
object line_configuration {
  name ID_101;
  conductor_A ID_3892;
  conductor_N ID_3892;
  spacing ID_123;
}
object line_configuration {
  name ID_102;
  conductor_B ID_1289;
  conductor_C ID_1289;
  conductor_N ID_1289;
  spacing ID_124;
}
object line_configuration {
  name ID_103;
  conductor_C ID_3892;
  conductor_N ID_3892;
  spacing ID_125;
}
object line_configuration {
  name ID_104;
  conductor_B ID_3892;
  conductor_N ID_3892;
  spacing ID_126;
}
object line_configuration {
  name ID_105;
  conductor_B ID_1290;
  conductor_N ID_1290;
  spacing ID_117;
}
object line_configuration {
  name ID_106;
  conductor_C ID_1290;
  conductor_N ID_1290;
  spacing ID_118;
}
object line_configuration {
  name ID_107;
  conductor_A ID_1291;
  conductor_B ID_1291;
  conductor_C ID_1291;
  conductor_N ID_1291;
  spacing ID_119;
}
object line_configuration {
  name ID_108;
  conductor_A ID_1290;
  conductor_B ID_1290;
  conductor_N ID_1290;
  spacing ID_122;
}
object line_configuration {
  name ID_109;
  conductor_A ID_1289;
  conductor_N ID_1289;
  spacing ID_120;
}
object line_configuration {
  name ID_110;
  conductor_B ID_1289;
  conductor_C ID_1289;
  conductor_N ID_1289;
  spacing ID_127;
}
object line_configuration {
  name ID_111;
  conductor_A ID_1289;
  conductor_B ID_1289;
  conductor_C ID_1289;
  conductor_N ID_1289;
  spacing ID_119;
}
object line_configuration {
  name ID_112;
  conductor_C ID_1289;
  conductor_N ID_1289;
  spacing ID_118;
}
object line_configuration {
  name ID_113;
  conductor_A ID_1290;
  conductor_N ID_1290;
  spacing ID_120;
}
object line_configuration {
  name ID_114;
  conductor_A ID_3892;
  conductor_B ID_3892;
  conductor_C ID_3892;
  conductor_N ID_3892;
  spacing ID_128;
}
object line_configuration {
  name ID_115;
  conductor_A ID_1290;
  conductor_B ID_1290;
  conductor_C ID_1290;
  conductor_N ID_1290;
  spacing ID_129;
}
object line_configuration {
  name ID_116;
  conductor_B ID_1289;
  conductor_C ID_1289;
  conductor_N ID_1289;
  spacing ID_124;
}
object triplex_line_conductor {
  name triplex_4/0_aa;
  resistance 0.48;
  geometric_mean_radius 0.0158;
  rating.summer.continuous 1000.0;
  rating.summer.emergency 1000.0;
  rating.winter.continuous 1000.0;
  rating.winter.emergency 1000.0;
}
object triplex_line_configuration {
  name ID_1940;
  conductor_1 triplex_4/0_aa;
  conductor_2 triplex_4/0_aa;
  conductor_N triplex_4/0_aa;
  insulation_thickness 0.08;
  diameter 0.522;
}
object underground_line_conductor {
  name ID_3892;
  rating.summer.continuous 112.0;
  outer_diameter 1.09;
  conductor_gmr 0.0088 ft;
  conductor_diameter 0.292;
  conductor_resistance 1.38336;
  neutral_gmr 0.00208 ft;
  neutral_resistance 14.87;
  neutral_diameter 0.0641;
  neutral_strands 6.0;
  insulation_relative_permitivitty 2.3;
}
object fuse {
  name R4_12_47_1_fuse_1;
// downstream 43.06 kva on CS
  phases CN;
  from R4_12_47_1_node_515;
  to R4_12_47_1_node_2;
  current_limit 40;
  status CLOSED;
  mean_replacement_time 3600;
}
object fuse {
  name R4_12_47_1_fuse_2;
// downstream 12.67 kva on CS
  phases CN;
  from R4_12_47_1_node_7;
  to R4_12_47_1_node_6;
  current_limit 40;
  status CLOSED;
  mean_replacement_time 3600;
}
object fuse {
  name R4_12_47_1_fuse_3;
// downstream 17.73 kva on CS
  phases CN;
  from R4_12_47_1_node_499;
  to R4_12_47_1_node_29;
  current_limit 40;
  status CLOSED;
  mean_replacement_time 3600;
}
object fuse {
  name R4_12_47_1_fuse_4;
// downstream 71.34 kva on ABC
  phases ABCN;
  from R4_12_47_1_node_40;
  to R4_12_47_1_node_39;
  current_limit 40;
  status CLOSED;
  mean_replacement_time 3600;
}
object fuse {
  name R4_12_47_1_fuse_5;
// downstream 50.10 kva on AS
  phases AN;
  from R4_12_47_1_node_49;
  to R4_12_47_1_node_54;
  current_limit 40;
  status CLOSED;
  mean_replacement_time 3600;
}
object fuse {
  name R4_12_47_1_fuse_6;
// downstream 50.10 kva on AS
  phases AN;
  from R4_12_47_1_node_55;
  to R4_12_47_1_node_60;
  current_limit 40;
  status CLOSED;
  mean_replacement_time 3600;
}
object fuse {
  name R4_12_47_1_fuse_7;
// downstream 20.96 kva on BS
  phases BN;
  from R4_12_47_1_node_62;
  to R4_12_47_1_node_63;
  current_limit 40;
  status CLOSED;
  mean_replacement_time 3600;
}
object fuse {
  name R4_12_47_1_fuse_8;
// downstream 101.32 kva on CS
  phases CN;
  from R4_12_47_1_node_56;
  to R4_12_47_1_node_64;
  current_limit 40;
  status CLOSED;
  mean_replacement_time 3600;
}
object fuse {
  name R4_12_47_1_fuse_9;
// downstream 15.20 kva on CS
  phases CN;
  from R4_12_47_1_node_71;
  to R4_12_47_1_node_72;
  current_limit 40;
  status CLOSED;
  mean_replacement_time 3600;
}
object fuse {
  name R4_12_47_1_fuse_10;
// downstream 83.83 kva on BS
  phases BN;
  from R4_12_47_1_node_78;
  to R4_12_47_1_node_77;
  current_limit 40;
  status CLOSED;
  mean_replacement_time 3600;
}
object fuse {
  name R4_12_47_1_fuse_11;
// downstream 30.38 kva on ACS
  phases ACN;
  from R4_12_47_1_node_510;
  to R4_12_47_1_node_85;
  current_limit 40;
  status CLOSED;
  mean_replacement_time 3600;
}
object fuse {
  name R4_12_47_1_fuse_12;
// downstream 20.96 kva on BS
  phases BN;
  from R4_12_47_1_node_89;
  to R4_12_47_1_node_88;
  current_limit 40;
  status CLOSED;
  mean_replacement_time 3600;
}
object fuse {
  name R4_12_47_1_fuse_13;
// downstream 96.40 kva on BS
  phases BN;
  from R4_12_47_1_node_105;
  to R4_12_47_1_node_92;
  current_limit 40;
  status CLOSED;
  mean_replacement_time 3600;
}
object fuse {
  name R4_12_47_1_fuse_14;
// downstream 5.07 kva on CS
  phases CN;
  from R4_12_47_1_node_111;
  to R4_12_47_1_node_112;
  current_limit 40;
  status CLOSED;
  mean_replacement_time 3600;
}
object fuse {
  name R4_12_47_1_fuse_15;
// downstream 20.96 kva on BS
  phases BN;
  from R4_12_47_1_node_115;
  to R4_12_47_1_node_116;
  current_limit 40;
  status CLOSED;
  mean_replacement_time 3600;
}
object fuse {
  name R4_12_47_1_fuse_16;
// downstream 20.96 kva on BS
  phases BN;
  from R4_12_47_1_node_119;
  to R4_12_47_1_node_120;
  current_limit 40;
  status CLOSED;
  mean_replacement_time 3600;
}
object fuse {
  name R4_12_47_1_fuse_17;
// downstream 50.38 kva on AC
  phases ACN;
  from R4_12_47_1_node_494;
  to R4_12_47_1_node_122;
  current_limit 40;
  status CLOSED;
  mean_replacement_time 3600;
}
object fuse {
  name R4_12_47_1_fuse_18;
// downstream 112.73 kva on AS
  phases AN;
  from R4_12_47_1_node_127;
  to R4_12_47_1_node_128;
  current_limit 40;
  status CLOSED;
  mean_replacement_time 3600;
}
object fuse {
  name R4_12_47_1_fuse_19;
// downstream 87.68 kva on AS
  phases AN;
  from R4_12_47_1_node_41;
  to R4_12_47_1_node_129;
  current_limit 40;
  status CLOSED;
  mean_replacement_time 3600;
}
object fuse {
  name R4_12_47_1_fuse_20;
// downstream 50.66 kva on CS
  phases CN;
  from R4_12_47_1_node_504;
  to R4_12_47_1_node_133;
  current_limit 40;
  status CLOSED;
  mean_replacement_time 3600;
}
object fuse {
  name R4_12_47_1_fuse_21;
// downstream 152.98 kva on BS
  phases BN;
  from R4_12_47_1_node_560;
  to R4_12_47_1_node_140;
  current_limit 65;
  status CLOSED;
  mean_replacement_time 3600;
}
object fuse {
  name R4_12_47_1_fuse_22;
// downstream 12.53 kva on AS
  phases AN;
  from R4_12_47_1_node_144;
  to R4_12_47_1_node_143;
  current_limit 40;
  status CLOSED;
  mean_replacement_time 3600;
}
object fuse {
  name R4_12_47_1_fuse_23;
// downstream 41.91 kva on BS
  phases BN;
  from R4_12_47_1_node_149;
  to R4_12_47_1_node_148;
  current_limit 40;
  status CLOSED;
  mean_replacement_time 3600;
}
object fuse {
  name R4_12_47_1_fuse_24;
// downstream 38.00 kva on CS
  phases CN;
  from R4_12_47_1_node_151;
  to R4_12_47_1_node_152;
  current_limit 40;
  status CLOSED;
  mean_replacement_time 3600;
}
object fuse {
  name R4_12_47_1_fuse_25;
// downstream 38.00 kva on CS
  phases CN;
  from R4_12_47_1_node_150;
  to R4_12_47_1_node_153;
  current_limit 40;
  status CLOSED;
  mean_replacement_time 3600;
}
object fuse {
  name R4_12_47_1_fuse_26;
// downstream 20.96 kva on BS
  phases BN;
  from R4_12_47_1_node_164;
  to R4_12_47_1_node_165;
  current_limit 40;
  status CLOSED;
  mean_replacement_time 3600;
}
object fuse {
  name R4_12_47_1_fuse_27;
// downstream 12.53 kva on AS
  phases AN;
  from R4_12_47_1_node_168;
  to R4_12_47_1_node_167;
  current_limit 40;
  status CLOSED;
  mean_replacement_time 3600;
}
object fuse {
  name R4_12_47_1_fuse_28;
// downstream 117.74 kva on AS
  phases AN;
  from R4_12_47_1_node_171;
  to R4_12_47_1_node_172;
  current_limit 40;
  status CLOSED;
  mean_replacement_time 3600;
}
object fuse {
  name R4_12_47_1_fuse_29;
// downstream 7.52 kva on AS
  phases AN;
  from R4_12_47_1_node_174;
  to R4_12_47_1_node_173;
  current_limit 40;
  status CLOSED;
  mean_replacement_time 3600;
}
object fuse {
  name R4_12_47_1_fuse_30;
// downstream 25.05 kva on AS
  phases AN;
  from R4_12_47_1_node_176;
  to R4_12_47_1_node_177;
  current_limit 40;
  status CLOSED;
  mean_replacement_time 3600;
}
object fuse {
  name R4_12_47_1_fuse_31;
// downstream 20.96 kva on BS
  phases BN;
  from R4_12_47_1_node_489;
  to R4_12_47_1_node_183;
  current_limit 40;
  status CLOSED;
  mean_replacement_time 3600;
}
object fuse {
  name R4_12_47_1_fuse_32;
// downstream 61.67 kva on ABS
  phases ABN;
  from R4_12_47_1_node_491;
  to R4_12_47_1_node_187;
  current_limit 40;
  status CLOSED;
  mean_replacement_time 3600;
}
object fuse {
  name R4_12_47_1_fuse_33;
// downstream 128.13 kva on BCS
  phases BCN;
  from R4_12_47_1_node_495;
  to R4_12_47_1_node_201;
  current_limit 40;
  status CLOSED;
  mean_replacement_time 3600;
}
object fuse {
  name R4_12_47_1_fuse_34;
// downstream 31.43 kva on BS
  phases BN;
  from R4_12_47_1_node_497;
  to R4_12_47_1_node_206;
  current_limit 40;
  status CLOSED;
  mean_replacement_time 3600;
}
object fuse {
  name R4_12_47_1_fuse_35;
  phases ABN;
  from R4_12_47_1_node_500;
  to R4_12_47_1_node_216;
  current_limit 50000;
  status CLOSED;
  mean_replacement_time 3600;
}
object fuse {
  name R4_12_47_1_fuse_36;
  phases AN;
  from R4_12_47_1_node_502;
  to R4_12_47_1_node_220;
  current_limit 50000;
  status CLOSED;
  mean_replacement_time 3600;
}
object fuse {
  name R4_12_47_1_fuse_37;
// downstream 50.38 kva on ABC
  phases ABCN;
  from R4_12_47_1_node_503;
  to R4_12_47_1_node_223;
  current_limit 40;
  status CLOSED;
  mean_replacement_time 3600;
}
object fuse {
  name R4_12_47_1_fuse_38;
// downstream 151.98 kva on CS
  phases CN;
  from R4_12_47_1_node_511;
  to R4_12_47_1_node_240;
  current_limit 65;
  status CLOSED;
  mean_replacement_time 3600;
}
object fuse {
  name R4_12_47_1_fuse_39;
// downstream 10.48 kva on BS
  phases BN;
  from R4_12_47_1_node_512;
  to R4_12_47_1_node_250;
  current_limit 40;
  status CLOSED;
  mean_replacement_time 3600;
}
object fuse {
  name R4_12_47_1_fuse_40;
// downstream 10.48 kva on BS
  phases BN;
  from R4_12_47_1_node_16;
  to R4_12_47_1_node_253;
  current_limit 40;
  status CLOSED;
  mean_replacement_time 3600;
}
object fuse {
  name R4_12_47_1_fuse_41;
// downstream 5.07 kva on CS
  phases CN;
  from R4_12_47_1_node_513;
  to R4_12_47_1_node_255;
  current_limit 40;
  status CLOSED;
  mean_replacement_time 3600;
}
object fuse {
  name R4_12_47_1_fuse_42;
// downstream 10.48 kva on BS
  phases BN;
  from R4_12_47_1_node_514;
  to R4_12_47_1_node_257;
  current_limit 40;
  status CLOSED;
  mean_replacement_time 3600;
}
object fuse {
  name R4_12_47_1_fuse_43;
// downstream 263.44 kva on CS
  phases CN;
  from R4_12_47_1_node_516;
  to R4_12_47_1_node_268;
  current_limit 100;
  status CLOSED;
  mean_replacement_time 3600;
}
object fuse {
  name R4_12_47_1_fuse_44;
// downstream 12.67 kva on CS
  phases CN;
  from R4_12_47_1_node_519;
  to R4_12_47_1_node_277;
  current_limit 40;
  status CLOSED;
  mean_replacement_time 3600;
}
object fuse {
  name R4_12_47_1_fuse_45;
// downstream 12.67 kva on CS
  phases CN;
  from R4_12_47_1_node_521;
  to R4_12_47_1_node_290;
  current_limit 40;
  status CLOSED;
  mean_replacement_time 3600;
}
object fuse {
  name R4_12_47_1_fuse_46;
// downstream 89.92 kva on CS
  phases CN;
  from R4_12_47_1_node_526;
  to R4_12_47_1_node_314;
  current_limit 40;
  status CLOSED;
  mean_replacement_time 3600;
}
object fuse {
  name R4_12_47_1_fuse_47;
// downstream 1032.22 kva on ABCS
  phases ABCN;
  from R4_12_47_1_node_4;
  to R4_12_47_1_node_337;
  current_limit 200;
  status CLOSED;
  mean_replacement_time 3600;
}
object fuse {
  name R4_12_47_1_fuse_48;
// downstream 285.58 kva on AS
  phases AN;
  from R4_12_47_1_node_527;
  to R4_12_47_1_node_338;
  current_limit 100;
  status CLOSED;
  mean_replacement_time 3600;
}
object fuse {
  name R4_12_47_1_fuse_49;
// downstream 125.25 kva on AS
  phases AN;
  from R4_12_47_1_node_530;
  to R4_12_47_1_node_346;
  current_limit 40;
  status CLOSED;
  mean_replacement_time 3600;
}
object fuse {
  name R4_12_47_1_fuse_50;
// downstream 349.97 kva on BS
  phases BN;
  from R4_12_47_1_node_531;
  to R4_12_47_1_node_359;
  current_limit 200;
  status CLOSED;
  mean_replacement_time 3600;
}
object fuse {
  name R4_12_47_1_fuse_51;
// downstream 12.53 kva on AS
  phases AN;
  from R4_12_47_1_node_69;
  to R4_12_47_1_node_376;
  current_limit 40;
  status CLOSED;
  mean_replacement_time 3600;
}
object fuse {
  name R4_12_47_1_fuse_52;
// downstream 25.05 kva on AS
  phases AN;
  from R4_12_47_1_node_490;
  to R4_12_47_1_node_388;
  current_limit 40;
  status CLOSED;
  mean_replacement_time 3600;
}
object fuse {
  name R4_12_47_1_fuse_53;
// downstream 171.85 kva on ABS
  phases ABN;
  from R4_12_47_1_node_492;
  to R4_12_47_1_node_393;
  current_limit 40;
  status CLOSED;
  mean_replacement_time 3600;
}
object fuse {
  name R4_12_47_1_fuse_54;
// downstream 31.43 kva on BS
  phases BN;
  from R4_12_47_1_node_20;
  to R4_12_47_1_node_397;
  current_limit 40;
  status CLOSED;
  mean_replacement_time 3600;
}
object fuse {
  name R4_12_47_1_fuse_55;
// downstream 30.40 kva on CS
  phases CN;
  from R4_12_47_1_node_496;
  to R4_12_47_1_node_403;
  current_limit 40;
  status CLOSED;
  mean_replacement_time 3600;
}
object fuse {
  name R4_12_47_1_fuse_56;
// downstream 27.86 kva on CS
  phases CN;
  from R4_12_47_1_node_498;
  to R4_12_47_1_node_406;
  current_limit 40;
  status CLOSED;
  mean_replacement_time 3600;
}
object fuse {
  name R4_12_47_1_fuse_57;
// downstream 14.67 kva on B
  phases BN;
  from R4_12_47_1_node_1;
  to R4_12_47_1_node_409;
  current_limit 40;
  status CLOSED;
  mean_replacement_time 3600;
}
object fuse {
  name R4_12_47_1_fuse_58;
// downstream 20.96 kva on BS
  phases BN;
  from R4_12_47_1_node_509;
  to R4_12_47_1_node_411;
  current_limit 40;
  status CLOSED;
  mean_replacement_time 3600;
}
object fuse {
  name R4_12_47_1_fuse_59;
// downstream 17.73 kva on CS
  phases CN;
  from R4_12_47_1_node_15;
  to R4_12_47_1_node_413;
  current_limit 40;
  status CLOSED;
  mean_replacement_time 3600;
}
object fuse {
  name R4_12_47_1_fuse_60;
// downstream 96.26 kva on CS
  phases CN;
  from R4_12_47_1_node_110;
  to R4_12_47_1_node_419;
  current_limit 40;
  status CLOSED;
  mean_replacement_time 3600;
}
object fuse {
  name R4_12_47_1_fuse_61;
// downstream 358.23 kva on ABCS
  phases ABCN;
  from R4_12_47_1_node_3;
  to R4_12_47_1_node_429;
  current_limit 40;
  status CLOSED;
  mean_replacement_time 3600;
}
object fuse {
  name R4_12_47_1_fuse_62;
// downstream 150.31 kva on AS
  phases AN;
  from R4_12_47_1_node_520;
  to R4_12_47_1_node_435;
  current_limit 65;
  status CLOSED;
  mean_replacement_time 3600;
}
object fuse {
  name R4_12_47_1_fuse_63;
// downstream 508.18 kva on ACS
  phases ACN;
  from R4_12_47_1_node_522;
  to R4_12_47_1_node_437;
  current_limit 100;
  status CLOSED;
  mean_replacement_time 3600;
}
object fuse {
  name R4_12_47_1_fuse_64;
// downstream 136.22 kva on BS
  phases BN;
  from R4_12_47_1_node_523;
  to R4_12_47_1_node_445;
  current_limit 65;
  status CLOSED;
  mean_replacement_time 3600;
}
object fuse {
  name R4_12_47_1_fuse_65;
// downstream 25.33 kva on CS
  phases CN;
  from R4_12_47_1_node_524;
  to R4_12_47_1_node_446;
  current_limit 40;
  status CLOSED;
  mean_replacement_time 3600;
}
object fuse {
  name R4_12_47_1_fuse_66;
// downstream 75.15 kva on AS
  phases AN;
  from R4_12_47_1_node_525;
  to R4_12_47_1_node_449;
  current_limit 40;
  status CLOSED;
  mean_replacement_time 3600;
}
object fuse {
  name R4_12_47_1_fuse_67;
// downstream 25.33 kva on CS
  phases CN;
  from R4_12_47_1_node_505;
  to R4_12_47_1_node_506;
  current_limit 40;
  status CLOSED;
  mean_replacement_time 3600;
}
object fuse {
  name R4_12_47_1_fuse_68;
// downstream 25.33 kva on CS
  phases CN;
  from R4_12_47_1_node_506;
  to R4_12_47_1_node_534;
  current_limit 40;
  status CLOSED;
  mean_replacement_time 3600;
}
object fuse {
  name R4_12_47_1_fuse_69;
// downstream 38.00 kva on CS
  phases CN;
  from R4_12_47_1_node_507;
  to R4_12_47_1_node_535;
  current_limit 40;
  status CLOSED;
  mean_replacement_time 3600;
}
object fuse {
  name R4_12_47_1_fuse_70;
// downstream 112.73 kva on AS
  phases AN;
  from R4_12_47_1_node_508;
  to R4_12_47_1_node_536;
  current_limit 40;
  status CLOSED;
  mean_replacement_time 3600;
}
object fuse {
  name R4_12_47_1_fuse_71;
// downstream 71.34 kva on ABC
  phases ABCN;
  from R4_12_47_1_node_517;
  to R4_12_47_1_node_537;
  current_limit 40;
  status CLOSED;
  mean_replacement_time 3600;
}
object fuse {
  name R4_12_47_1_fuse_72;
// downstream 41.91 kva on BS
  phases BN;
  from R4_12_47_1_node_529;
  to R4_12_47_1_node_538;
  current_limit 40;
  status CLOSED;
  mean_replacement_time 3600;
}
object fuse {
  name R4_12_47_1_fuse_73;
// downstream 83.83 kva on BS
  phases BN;
  from R4_12_47_1_node_487;
  to R4_12_47_1_node_539;
  current_limit 40;
  status CLOSED;
  mean_replacement_time 3600;
}
object fuse {
  name R4_12_47_1_fuse_74;
// downstream 83.83 kva on BS
  phases BN;
  from R4_12_47_1_node_528;
  to R4_12_47_1_node_540;
  current_limit 40;
  status CLOSED;
  mean_replacement_time 3600;
}
object fuse {
  name R4_12_47_1_fuse_75;
// downstream 37.58 kva on AS
  phases AN;
  from R4_12_47_1_node_548;
  to R4_12_47_1_node_549;
  current_limit 40;
  status CLOSED;
  mean_replacement_time 3600;
}
object fuse {
  name R4_12_47_1_fuse_76;
// downstream 88.66 kva on CS
  phases CN;
  from R4_12_47_1_node_556;
  to R4_12_47_1_node_554;
  current_limit 40;
  status CLOSED;
  mean_replacement_time 3600;
}
object fuse {
  name R4_12_47_1_fuse_77;
// downstream 75.99 kva on CS
  phases CN;
  from R4_12_47_1_node_558;
  to R4_12_47_1_node_559;
  current_limit 40;
  status CLOSED;
  mean_replacement_time 3600;
}
object fuse {
  name R4_12_47_1_fuse_78;
// downstream 373.02 kva on BS
  phases BN;
  from R4_12_47_1_node_43;
  to R4_12_47_1_node_563;
  current_limit 200;
  status CLOSED;
  mean_replacement_time 3600;
}
object fuse {
  name R4_12_47_1_fuse_79;
// downstream 20.96 kva on BS
  phases BN;
  from R4_12_47_1_node_564;
  to R4_12_47_1_node_565;
  current_limit 40;
  status CLOSED;
  mean_replacement_time 3600;
}
object switch {
  name R4_12_47_1_switch_1;
  phases ABCN;
  from R4_12_47_1_node_45;
  to R4_12_47_1_node_46;
  status CLOSED;
}
object switch {
  name R4_12_47_1_switch_3;
  phases ABCN;
  from R4_12_47_1_node_159;
  to R4_12_47_1_node_160;
  status CLOSED;
}
object switch {
  name R4_12_47_1_switch_4;
  phases ABCN;
  from R4_12_47_1_node_162;
  to R4_12_47_1_node_161;
  status CLOSED;
}
object switch {
  name R4_12_47_1_switch_5;
// downstream 233.70 kva on ABCS
  phases ABCN;
  from R4_12_47_1_node_190;
  to R4_12_47_1_node_493;
  status CLOSED;
}
object switch {
  name R4_12_47_1_switch_6;
// downstream 831.95 kva on ABCS
  phases ABCN;
  from R4_12_47_1_node_219;
  to R4_12_47_1_node_501;
  status CLOSED;
}
object switch {
  name R4_12_47_1_switch_7;
// downstream 179.24 kva on ABCS
  phases ABCN;
  from R4_12_47_1_node_275;
  to R4_12_47_1_node_518;
  status CLOSED;
}
object switch {
  name R4_12_47_1_switch_8;
  phases ABCN;
  from R4_12_47_1_node_179;
  to R4_12_47_1_node_541;
  status CLOSED;
}
object recloser {
  name R4_12_47_1_recloser_1;
// downstream 1860.17 kva on ABCS
  phases ABCN;
  from R4_12_47_1_node_8;
  to R4_12_47_1_node_9;
  status CLOSED;
  operating_mode INDIVIDUAL;
  phase_A_state CLOSED;
  phase_B_state CLOSED;
  phase_C_state CLOSED;
  retry_time 1.0 s;
  max_number_of_tries 3;
  number_of_tries 0;
}
object overhead_line {
  name R4_12_47_1_ol_1;
// downstream 14.67 kva on B
  phases BN;
  from R4_12_47_1_node_219;
  to R4_12_47_1_node_1;
  length 19.000;
  configuration ID_88;
}
object overhead_line {
  name R4_12_47_1_ol_2;
// downstream 358.23 kva on ABCS
  phases ABCN;
  from R4_12_47_1_node_180;
  to R4_12_47_1_node_3;
  length 8.000;
  configuration ID_90;
}
object overhead_line {
  name R4_12_47_1_ol_3;
// downstream 1032.22 kva on ABCS
  phases ABCN;
  from R4_12_47_1_node_340;
  to R4_12_47_1_node_4;
  length 106.000;
  configuration ID_91;
}
object overhead_line {
  name R4_12_47_1_ol_4;
// downstream 1872.84 kva on ABCS
  phases ABCN;
  from R4_12_47_1_node_254;
  to R4_12_47_1_node_5;
  length 672.000;
  configuration ID_92;
}
object overhead_line {
  name R4_12_47_1_ol_5;
// downstream 12.67 kva on CS
  phases CN;
  from R4_12_47_1_node_5;
  to R4_12_47_1_node_7;
  length 12.000;
  configuration ID_89;
}
object overhead_line {
  name R4_12_47_1_ol_6;
// downstream 1860.17 kva on ABCS
  phases ABCN;
  from R4_12_47_1_node_5;
  to R4_12_47_1_node_8;
  length 299.000;
  configuration ID_92;
}
object overhead_line {
  name R4_12_47_1_ol_7;
// downstream 5.07 kva on CS
  phases CN;
  from R4_12_47_1_node_9;
  to R4_12_47_1_node_10;
  length 181.000;
  configuration ID_89;
}
object overhead_line {
  name R4_12_47_1_ol_8;
// downstream 180.57 kva on ABCS
  phases ABCN;
  from R4_12_47_1_node_396;
  to R4_12_47_1_node_11;
  length 702.000;
  configuration ID_91;
}
object overhead_line {
  name R4_12_47_1_ol_9;
// downstream 10.48 kva on BS
  phases BN;
  from R4_12_47_1_node_462;
  to R4_12_47_1_node_12;
  length 396.000;
  configuration ID_88;
}
object overhead_line {
  name R4_12_47_1_ol_10;
// downstream 5.07 kva on CS
  phases CN;
  from R4_12_47_1_node_413;
  to R4_12_47_1_node_13;
  length 657.000;
  configuration ID_89;
}
object overhead_line {
  name R4_12_47_1_ol_11;
// downstream 135.24 kva on ABCS
  phases ABCN;
  from R4_12_47_1_node_272;
  to R4_12_47_1_node_14;
  length 115.000;
  configuration ID_93;
}
object overhead_line {
  name R4_12_47_1_ol_12;
// downstream 17.73 kva on CS
  phases CN;
  from R4_12_47_1_node_251;
  to R4_12_47_1_node_15;
  length 11.000;
  configuration ID_89;
}
object overhead_line {
  name R4_12_47_1_ol_13;
// downstream 10.48 kva on BS
  phases BN;
  from R4_12_47_1_node_252;
  to R4_12_47_1_node_16;
  length 9.000;
  configuration ID_88;
}
object overhead_line {
  name R4_12_47_1_ol_14;
// downstream 1392.64 kva on ABCS
  phases ABCN;
  from R4_12_47_1_node_551;
  to R4_12_47_1_node_17;
  length 525.000;
  configuration ID_94;
}
object overhead_line {
  name R4_12_47_1_ol_15;
// downstream 7.60 kva on CS
  phases CN;
  from R4_12_47_1_node_17;
  to R4_12_47_1_node_18;
  length 113.000;
  configuration ID_89;
}
object overhead_line {
  name R4_12_47_1_ol_16;
// downstream 38.95 kva on ABCS
  phases ABCN;
  from R4_12_47_1_node_22;
  to R4_12_47_1_node_19;
  length 154.000;
  configuration ID_90;
}
object overhead_line {
  name R4_12_47_1_ol_17;
// downstream 31.43 kva on BS
  phases BN;
  from R4_12_47_1_node_19;
  to R4_12_47_1_node_20;
  length 15.000;
  configuration ID_88;
}
object overhead_line {
  name R4_12_47_1_ol_18;
// downstream 69.07 kva on ABCS
  phases ABCN;
  from R4_12_47_1_node_194;
  to R4_12_47_1_node_21;
  length 401.000;
  configuration ID_91;
}
object overhead_line {
  name R4_12_47_1_ol_19;
// downstream 38.95 kva on ABCS
  phases ABCN;
  from R4_12_47_1_node_21;
  to R4_12_47_1_node_22;
  length 295.000;
  configuration ID_91;
}
object overhead_line {
  name R4_12_47_1_ol_20;
// downstream 30.12 kva on ABC
  phases ABCN;
  from R4_12_47_1_node_21;
  to R4_12_47_1_node_23;
  length 100.000;
  configuration ID_91;
}
object overhead_line {
  name R4_12_47_1_ol_21;
// downstream 12.53 kva on AS
  phases AN;
  from R4_12_47_1_node_25;
  to R4_12_47_1_node_24;
  length 376.000;
  configuration ID_95;
}
object overhead_line {
  name R4_12_47_1_ol_22;
// downstream 17.54 kva on AS
  phases AN;
  from R4_12_47_1_node_568;
  to R4_12_47_1_node_25;
  length 234.000;
  configuration ID_95;
}
object overhead_line {
  name R4_12_47_1_ol_23;
// downstream 492.92 kva on ACS
  phases ACN;
  from R4_12_47_1_node_437;
  to R4_12_47_1_node_26;
  length 140.000;
  configuration ID_96;
}
object overhead_line {
  name R4_12_47_1_ol_24;
// downstream 381.50 kva on ACS
  phases ACN;
  from R4_12_47_1_node_307;
  to R4_12_47_1_node_27;
  length 214.000;
  configuration ID_96;
}
object overhead_line {
  name R4_12_47_1_ol_25;
// downstream 10.13 kva on CS
  phases CN;
  from R4_12_47_1_node_29;
  to R4_12_47_1_node_28;
  length 246.000;
  configuration ID_89;
}
object overhead_line {
  name R4_12_47_1_ol_26;
// downstream 12.67 kva on CS
  phases CN;
  from R4_12_47_1_node_109;
  to R4_12_47_1_node_30;
  length 399.000;
  configuration ID_89;
}
object overhead_line {
  name R4_12_47_1_ol_27;
// downstream 30.40 kva on CS
  phases CN;
  from R4_12_47_1_node_2;
  to R4_12_47_1_node_31;
  length 572.000;
  configuration ID_89;
}
object overhead_line {
  name R4_12_47_1_ol_28;
// downstream 5336.49 kva on ABCS
  phases ABCN;
  from R4_12_47_1_node_372;
  to R4_12_47_1_node_32;
  length 221.000;
  configuration ID_97;
}
object overhead_line {
  name R4_12_47_1_ol_29;
// downstream 23.00 kva on AB
  phases ABN;
  from R4_12_47_1_node_32;
  to R4_12_47_1_node_33;
  length 225.000;
  configuration ID_98;
}
object overhead_line {
  name R4_12_47_1_ol_30;
// downstream 5075.22 kva on ABCS
  phases ABCN;
  from R4_12_47_1_node_32;
  to R4_12_47_1_node_34;
  length 105.000;
  configuration ID_97;
}
object overhead_line {
  name R4_12_47_1_ol_31;
// downstream 200.41 kva on AS
  phases AN;
  from R4_12_47_1_node_34;
  to R4_12_47_1_node_35;
  length 95.000;
  configuration ID_95;
}
object overhead_line {
  name R4_12_47_1_ol_32;
// downstream 4874.81 kva on ABCS
  phases ABCN;
  from R4_12_47_1_node_34;
  to R4_12_47_1_node_36;
  length 390.000;
  configuration ID_97;
}
object overhead_line {
  name R4_12_47_1_ol_33;
// downstream 4663.91 kva on ABCS
  phases ABCN;
  from R4_12_47_1_node_50;
  to R4_12_47_1_node_37;
  length 157.000;
  configuration ID_97;
}
object overhead_line {
  name R4_12_47_1_ol_34;
// downstream 4642.95 kva on ABCS
  phases ABCN;
  from R4_12_47_1_node_37;
  to R4_12_47_1_node_38;
  length 85.000;
  configuration ID_97;
}
object overhead_line {
  name R4_12_47_1_ol_35;
// downstream 71.34 kva on ABC
  phases ABCN;
  from R4_12_47_1_node_38;
  to R4_12_47_1_node_40;
  length 12.000;
  configuration ID_99;
}
object overhead_line {
  name R4_12_47_1_ol_36;
// downstream 87.68 kva on AS
  phases AN;
  from R4_12_47_1_node_35;
  to R4_12_47_1_node_41;
  length 12.000;
  configuration ID_95;
}
object overhead_line {
  name R4_12_47_1_ol_37;
// downstream 383.50 kva on BS
  phases BN;
  from R4_12_47_1_node_341;
  to R4_12_47_1_node_42;
  length 265.000;
  configuration ID_88;
}
object overhead_line {
  name R4_12_47_1_ol_38;
// downstream 373.02 kva on BS
  phases BN;
  from R4_12_47_1_node_42;
  to R4_12_47_1_node_43;
  length 12.000;
  configuration ID_88;
}
object overhead_line {
  name R4_12_47_1_ol_39;
// downstream 10.48 kva on BS
  phases BN;
  from R4_12_47_1_node_42;
  to R4_12_47_1_node_44;
  length 125.000;
  configuration ID_88;
}
object overhead_line {
  name R4_12_47_1_ol_40;
  phases ABCN;
  from R4_12_47_1_node_394;
  to R4_12_47_1_node_45;
  length 1666.000;
  configuration ID_91;
}
object overhead_line {
  name R4_12_47_1_ol_41;
// downstream 17.59 kva on ACS
  phases ACN;
  from R4_12_47_1_node_436;
  to R4_12_47_1_node_47;
  length 90.000;
  configuration ID_100;
}
object overhead_line {
  name R4_12_47_1_ol_42;
// downstream 50.10 kva on AS
  phases AN;
  from R4_12_47_1_node_36;
  to R4_12_47_1_node_49;
  length 83.000;
  configuration ID_95;
}
object overhead_line {
  name R4_12_47_1_ol_43;
// downstream 4815.33 kva on ABCS
  phases ABCN;
  from R4_12_47_1_node_36;
  to R4_12_47_1_node_50;
  length 324.000;
  configuration ID_97;
}
object overhead_line {
  name R4_12_47_1_ol_44;
// downstream 151.42 kva on ACS
  phases ACN;
  from R4_12_47_1_node_50;
  to R4_12_47_1_node_51;
  length 75.000;
  configuration ID_100;
}
object overhead_line {
  name R4_12_47_1_ol_45;
// downstream 20.96 kva on BS
  phases BCN;
  from R4_12_47_1_node_37;
  to R4_12_47_1_node_52;
  length 95.000;
  configuration ID_102;
}
object overhead_line {
  name R4_12_47_1_ol_46;
// downstream 50.10 kva on AS
  phases AN;
  from R4_12_47_1_node_51;
  to R4_12_47_1_node_55;
  length 12.000;
  configuration ID_95;
}
object overhead_line {
  name R4_12_47_1_ol_47;
// downstream 101.32 kva on CS
  phases CN;
  from R4_12_47_1_node_51;
  to R4_12_47_1_node_56;
  length 12.000;
  configuration ID_89;
}
object overhead_line {
  name R4_12_47_1_ol_48;
  phases CN;
  from R4_12_47_1_node_52;
  to R4_12_47_1_node_61;
  length 12.000;
  configuration ID_89;
}
object overhead_line {
  name R4_12_47_1_ol_49;
// downstream 20.96 kva on BS
  phases BN;
  from R4_12_47_1_node_52;
  to R4_12_47_1_node_62;
  length 12.000;
  configuration ID_88;
}
object overhead_line {
  name R4_12_47_1_ol_50;
// downstream 12.53 kva on AS
  phases AN;
  from R4_12_47_1_node_375;
  to R4_12_47_1_node_69;
  length 15.000;
  configuration ID_95;
}
object overhead_line {
  name R4_12_47_1_ol_51;
// downstream 5.07 kva on CS
  phases CN;
  from R4_12_47_1_node_73;
  to R4_12_47_1_node_70;
  length 259.000;
  configuration ID_89;
}
object overhead_line {
  name R4_12_47_1_ol_52;
// downstream 15.20 kva on CS
  phases CN;
  from R4_12_47_1_node_225;
  to R4_12_47_1_node_71;
  length 15.000;
  configuration ID_89;
}
object overhead_line {
  name R4_12_47_1_ol_53;
// downstream 10.13 kva on CS
  phases CN;
  from R4_12_47_1_node_72;
  to R4_12_47_1_node_73;
  length 236.000;
  configuration ID_89;
}
object overhead_line {
  name R4_12_47_1_ol_54;
// downstream 5588.87 kva on ABCS
  phases ABCN;
  from R4_12_47_1_node_375;
  to R4_12_47_1_node_76;
  length 33.000;
  configuration ID_97;
}
object overhead_line {
  name R4_12_47_1_ol_55;
// downstream 83.83 kva on BS
  phases BN;
  from R4_12_47_1_node_76;
  to R4_12_47_1_node_78;
  length 12.000;
  configuration ID_88;
}
object overhead_line {
  name R4_12_47_1_ol_56;
// downstream 15.12 kva on ACS
  phases ACN;
  from R4_12_47_1_node_85;
  to R4_12_47_1_node_86;
...